data_image0
_chemical_formula_structural       N4H12
_chemical_formula_sum              "N4 H12"
_cell_length_a       5.1305
_cell_length_b       5.1305
_cell_length_c       5.1305
_cell_angle_alpha    90.0
_cell_angle_beta     90.0
_cell_angle_gamma    90.0

_space_group_name_H-M_alt    "P 1"
_space_group_IT_number       1

loop_
  _space_group_symop_operation_xyz
  'x, y, z'

loop_
  _atom_site_type_symbol
  _atom_site_label
  _atom_site_symmetry_multiplicity
  _atom_site_fract_x
  _atom_site_fract_y
  _atom_site_fract_z
  _atom_site_occupancy
  N   N1        1.0  0.20362711431634345  0.20362143065977978  0.20363040249488357  1.0000
  N   N2        1.0  0.7036270285547218  0.2963792242471494  0.7963697807231265  1.0000
  N   N3        1.0  0.7963762030991133  0.7036210856641654  0.29636867946593903  1.0000
  N   N4        1.0  0.2963763590293344  0.7963798694084397  0.7036310301140241  1.0000
  H   H1        1.0  0.3629245492642043  0.2721600643212163  0.1038168463112757  1.0000
  H   H2        1.0  0.27217310983334964  0.10381141409219374  0.3629438261378034  1.0000
  H   H3        1.0  0.10380398986453562  0.36291093070850794  0.2721636429197934  1.0000
  H   H4        1.0  0.8629243582496834  0.22784075821070074  0.8961831536887244  1.0000
  H   H5        1.0  0.7721733183900205  0.3961893928467011  0.637055963356398  1.0000
  H   H6        1.0  0.6038040502874964  0.13708987233213138  0.7278362264886463  1.0000
  H   H7        1.0  0.7278284709092682  0.6038118156125135  0.13705681902348701  1.0000
  H   H8        1.0  0.8961960101354645  0.8629101042783355  0.2278376727414482  1.0000
  H   H9        1.0  0.396196503264789  0.6370900906344411  0.7721622337004191  1.0000
  H   H10       1.0  0.13707612318487478  0.7278407621089563  0.6038159828476757  1.0000
  H   H11       1.0  0.22782896988597603  0.8961885859078063  0.862942724880616  1.0000
  H   H12       1.0  0.6370755053113731  0.7721598908488453  0.39618369749537086  1.0000
