data_image0
_chemical_formula_structural       C12N8H16
_chemical_formula_sum              "C12 N8 H16"
_cell_length_a       7.582
_cell_length_b       5.371
_cell_length_c       9.789998670193985
_cell_angle_alpha    90.0
_cell_angle_beta     118.9800243316603
_cell_angle_gamma    90.0

_space_group_name_H-M_alt    "P 1"
_space_group_IT_number       1

loop_
  _space_group_symop_operation_xyz
  'x, y, z'

loop_
  _atom_site_type_symbol
  _atom_site_label
  _atom_site_symmetry_multiplicity
  _atom_site_fract_x
  _atom_site_fract_y
  _atom_site_fract_z
  _atom_site_occupancy
  C   C1        1.0  0.15641619852944091  0.21748740830385402  0.17891573740860184  1.0000
  C   C2        1.0  0.8435838023430995  0.7825125879724446  0.8210842660943605  1.0000
  C   C3        1.0  0.8435838695470577  0.7174874157512567  0.32108429762102153  1.0000
  C   C4        1.0  0.15641613339508564  0.282512550735431  0.6789156965407078  1.0000
  C   C5        1.0  0.30891648630574975  0.5538563582200707  0.2992826026543113  1.0000
  C   C6        1.0  0.6910835223786245  0.44614364922733196  0.7007173774955687  1.0000
  C   C7        1.0  0.6910836143982326  0.0538563712530255  0.20071738333383932  1.0000
  C   C8        1.0  0.3089163892946004  0.9461435915099609  0.7992826014866571  1.0000
  C   C9        1.0  0.31681822350827105  0.547687641035189  0.16195064209299664  1.0000
  C   C10       1.0  0.6831817898633273  0.4523123273133494  0.8380493392245375  1.0000
  C   C11       1.0  0.6831818727319832  0.04768772295661888  0.3380493789247774  1.0000
  C   C12       1.0  0.3168181581914494  0.9523122677341278  0.6619506199075684  1.0000
  N   N1        1.0  0.21880362964391753  0.33294443120461736  0.0866535850484226  1.0000
  N   N2        1.0  0.7811963807653323  0.6670555278346676  0.9133464126162691  1.0000
  N   N3        1.0  0.781196444783446  0.8329444479612734  0.41334642429281027  1.0000
  N   N4        1.0  0.2188035851051851  0.16705554645317444  0.5866535792101519  1.0000
  N   N5        1.0  0.2081886374439117  0.34623108918264756  0.30933618980451133  1.0000
  N   N6        1.0  0.791811363448834  0.6537689368832619  0.690663803189564  1.0000
  N   N7        1.0  0.7918114205882697  0.8462310314652765  0.19066381019548861  1.0000
  N   N8        1.0  0.20818857005748712  0.1537689145410538  0.8093361769603161  1.0000
  H   H1        1.0  0.2041807624127795  0.2664969447030348  0.9804328085117313  1.0000
  H   H2        1.0  0.7958192415439599  0.7335030013032955  0.019567191488268576  1.0000
  H   H3        1.0  0.7958192874016056  0.766497008005958  0.5195671973265391  1.0000
  H   H4        1.0  0.20418074189859686  0.23350300130329546  0.4804328073440773  1.0000
  H   H5        1.0  0.07603664106752836  0.0417896536957736  0.15004410696645795  1.0000
  H   H6        1.0  0.9239633584658933  0.9582103463042263  0.8499559070453913  1.0000
  H   H7        1.0  0.9239634060888251  0.5417896369391175  0.3499559093806996  1.0000
  H   H8        1.0  0.07603659303863436  0.4582103295475703  0.650044087116338  1.0000
  H   H9        1.0  0.36965820313227554  0.6937723980636753  0.3903183281995474  1.0000
  H   H10       1.0  0.6303418090826708  0.30622762241668217  0.609681644944408  1.0000
  H   H11       1.0  0.6303418699761746  0.19377237013591508  0.10968168114168547  1.0000
  H   H12       1.0  0.3696581303483474  0.8062275851796685  0.8903183025111568  1.0000
  H   H13       1.0  0.3834787342810248  0.6747871960528765  0.11394420831883495  1.0000
  H   H14       1.0  0.616521285401028  0.32521274995345373  0.8860557683280827  1.0000
  H   H15       1.0  0.6165213823717669  0.1747872463228449  0.3860557905135109  1.0000
  H   H16       1.0  0.38347866174079787  0.8252127574008564  0.6139442083188349  1.0000
